Version 4
SHEET 1 880 680
WIRE 96 0 -336 0
WIRE 256 0 96 0
WIRE 256 32 256 0
WIRE -336 48 -336 0
WIRE 96 64 96 0
WIRE 256 128 256 32
WIRE -144 176 -160 176
WIRE -128 176 -144 176
WIRE -32 176 -48 176
WIRE -16 176 -32 176
WIRE 96 176 96 144
WIRE 96 176 48 176
WIRE 160 176 96 176
WIRE 192 176 160 176
WIRE -336 208 -336 128
WIRE -256 208 -336 208
WIRE -224 208 -256 208
WIRE 96 208 96 176
WIRE -256 240 -256 208
WIRE 256 256 256 224
WIRE 256 272 256 256
WIRE 320 272 256 272
WIRE 448 272 384 272
WIRE -336 288 -336 208
WIRE -160 304 -160 176
WIRE 256 304 256 272
WIRE 448 304 448 272
WIRE -224 416 -224 208
WIRE -160 416 -160 384
WIRE -160 416 -224 416
WIRE 256 448 256 384
WIRE 448 448 448 384
WIRE -336 480 -336 368
WIRE 96 480 96 288
WIRE 96 480 -336 480
WIRE 256 480 256 448
WIRE 256 480 96 480
FLAG -256 240 0
FLAG 448 448 0
FLAG 256 256 VE
IOPIN 256 256 Out
FLAG 448 272 Vout
IOPIN 448 272 Out
FLAG 160 176 VB
IOPIN 160 176 Out
FLAG 256 32 VC<>VCC
IOPIN 256 32 Out
FLAG 256 448 VEE
IOPIN 256 448 Out
FLAG -144 176 vs
IOPIN -144 176 Out
FLAG -32 176 VC1
IOPIN -32 176 Out
SYMBOL res 80 48 R0
WINDOW 0 39 21 Left 2
WINDOW 3 -37 25 Left 2
SYMATTR InstName R1
SYMATTR Value 10k
SYMBOL res 80 192 R0
WINDOW 0 38 71 Left 2
WINDOW 3 -40 64 Left 2
SYMATTR InstName R2
SYMATTR Value 10k
SYMBOL res 240 288 R0
SYMATTR InstName RE
SYMATTR Value 500
SYMBOL res 432 288 R0
SYMATTR InstName RL
SYMATTR Value 300
SYMBOL res -32 160 R90
WINDOW 0 0 56 VBottom 2
WINDOW 3 32 56 VTop 2
SYMATTR InstName RS
SYMATTR Value 1k
SYMBOL cap 48 160 R90
WINDOW 0 0 32 VBottom 2
WINDOW 3 32 32 VTop 2
SYMATTR InstName C1
SYMATTR Value 1µ
SYMBOL cap 384 256 R90
WINDOW 0 0 32 VBottom 2
WINDOW 3 32 32 VTop 2
SYMATTR InstName C2
SYMATTR Value 1µ
SYMBOL voltage -160 288 R0
WINDOW 0 -11 55 Left 2
WINDOW 123 24 124 Left 2
WINDOW 39 0 0 Left 0
SYMATTR InstName vs
SYMATTR Value SINE(0 0 1k)
SYMATTR Value2 AC 1
SYMBOL voltage -336 32 R0
WINDOW 0 -22 54 Left 2
WINDOW 3 28 17 Left 2
SYMATTR InstName VCC
SYMATTR Value 9
SYMBOL voltage -336 272 R0
WINDOW 0 -20 56 Left 2
SYMATTR InstName VEE
SYMATTR Value 9
SYMBOL npn 192 128 R0
SYMATTR InstName Q1
SYMATTR Value 2N2222
TEXT -224 32 Left 2 !.op
