Version 4
SHEET 1 880 680
WIRE 48 64 32 64
WIRE 160 64 48 64
WIRE 320 64 224 64
WIRE 320 80 320 64
WIRE 32 128 32 64
WIRE 320 144 320 80
WIRE 32 256 32 208
WIRE 32 272 32 256
WIRE 32 416 32 352
WIRE 176 416 32 416
WIRE 320 416 320 224
WIRE 320 416 176 416
WIRE 176 448 176 416
FLAG 176 448 0
FLAG 320 80 Vout
IOPIN 320 80 Out
FLAG 48 64 vi
IOPIN 48 64 Out
FLAG 32 256 Vdc
IOPIN 32 256 Out
SYMBOL diode 160 80 R270
WINDOW 0 32 32 VTop 2
WINDOW 3 0 32 VBottom 2
SYMATTR InstName D1
SYMATTR Value 1N4002
SYMBOL res 304 128 R0
SYMATTR InstName R
SYMATTR Value 5k
SYMBOL voltage 32 256 R0
WINDOW 0 -21 56 Left 2
SYMATTR InstName VPS
SYMATTR Value 5
SYMBOL voltage 32 112 R0
WINDOW 0 -11 56 Left 2
WINDOW 3 45 55 Left 2
WINDOW 123 43 80 Left 2
WINDOW 39 0 0 Left 0
SYMATTR InstName vi
SYMATTR Value SINE(0 .1 60)
SYMATTR Value2 AC 1
TEXT 64 -8 Left 2 !.tran 0 120m 0 1000
