*
* Bandini  01Mar2025
*

.model BS170 VDMOS(nchan VDS=60 Ron=1800m Qg=60000p mfg=Motorola)
.model BS170_org VDMOS(nchan VDS=60 Ron=1800m Qg=60000p VTO=2.0V BETA=140m VMAX=10.0V RS=1.0 RD=1.0 mfg=Motorola)

.model AO6407 VDMOS(pchan Rg=3 Rd=14m Rs=10m Vto=-.8 Kp=32 Cgdmax=.5n Cgdmin=.07n Cgs=.9n Cjo=.26n Is=26p Rb=17m ksubthres=.1 mfg=Alpha_&_Omega Vds=-20 Ron=34m Qg=13n)
.model AO6408 VDMOS(Rg=3 Rd=4.8m Rs=3.6m Vto=1 Kp=90 Cgdmax=.7n Cgdmin=.25n Cgs=1n Cjo=.36n Is=36p Rb=6m ksubthres=.1 mfg=Alpha_&_Omega Vds=20 Ron=12m Qg=18n)
