Version 4
SHEET 1 880 680
WIRE -272 -32 -304 -32
WIRE -160 -32 -192 -32
WIRE -64 -32 -96 -32
WIRE 64 -32 -64 -32
WIRE 176 -32 64 -32
WIRE 224 -32 176 -32
WIRE 336 -32 288 -32
WIRE 464 -32 336 -32
WIRE 592 -32 464 -32
WIRE -304 16 -304 -32
WIRE -64 16 -64 -32
WIRE 336 16 336 -32
WIRE 464 16 464 -32
WIRE 592 16 592 -32
WIRE 64 32 64 -32
WIRE 176 32 176 -32
WIRE -304 128 -304 96
WIRE -64 128 -64 96
WIRE -64 128 -304 128
WIRE 64 128 64 112
WIRE 176 128 176 96
WIRE 176 128 64 128
WIRE 256 128 176 128
WIRE 336 128 336 96
WIRE 336 128 256 128
WIRE 464 128 464 96
WIRE 464 128 336 128
WIRE 592 128 592 96
WIRE 592 128 464 128
WIRE 256 144 256 128
WIRE -64 160 -64 128
WIRE 256 240 256 224
FLAG 256 240 0
FLAG -64 160 0
SYMBOL res 80 128 R180
WINDOW 0 -36 56 Left 2
WINDOW 3 36 40 Left 2
SYMATTR InstName rpi
SYMATTR Value ""
SYMBOL res 448 0 R0
WINDOW 0 35 45 Left 2
SYMATTR InstName ro
SYMATTR Value ""
SYMBOL cap 160 32 R0
WINDOW 0 -27 7 Left 2
SYMATTR InstName Cpi
SYMATTR Value ""
SYMBOL cap 288 -48 R90
WINDOW 0 0 32 VBottom 2
WINDOW 3 32 32 VTop 2
SYMATTR InstName Cu
SYMATTR Value ""
SYMBOL current 336 16 R0
WINDOW 0 8 -8 Left 2
SYMATTR InstName gmVpi
SYMATTR Value ""
SYMBOL res 576 0 R0
WINDOW 0 35 45 Left 2
SYMATTR InstName RC
SYMATTR Value ""
SYMBOL res 240 128 R0
WINDOW 0 35 45 Left 2
SYMATTR InstName RE
SYMATTR Value ""
SYMBOL cap -96 -48 R90
WINDOW 0 0 32 VBottom 2
WINDOW 3 32 32 VTop 2
SYMATTR InstName Cs
SYMATTR Value ""
SYMBOL res -80 0 R0
WINDOW 0 -49 59 Left 2
SYMATTR InstName RTh
SYMATTR Value ""
SYMBOL res -176 -48 R90
WINDOW 0 0 56 VBottom 2
WINDOW 3 32 56 VTop 2
SYMATTR InstName Rs
SYMATTR Value ""
SYMBOL voltage -304 0 R0
WINDOW 0 -11 54 Left 2
SYMATTR InstName Vs
SYMATTR Value ""
TEXT 56 -64 Left 2 ;B
TEXT 248 104 Left 2 ;E
TEXT 536 -48 Left 2 ;C
TEXT 32 48 Right 2 ;+\nVpi\n-
TEXT -232 104 Left 2 ;RTh=R1||R2
